2009UseCases/UseCases_0perc/VoltDump_UseCases_0perc_12.csv
# VoltDump_UseCases_0perc_12.csv run at 2000-07-10 22:00:00 MDT on 33760 nodes
node_name,voltA_real,voltA_imag,voltB_real,voltB_imag,voltC_real,voltC_imag
feeder_2_R3-12-47-1_cap_1,5978.665592,-3410.222399,-5940.989639,-3474.770143,-36.591254,6877.971123
feeder_2_R3-12-47-1_load_1,232.130260,-133.328320,-231.490069,-134.440064,-0.619856,267.566038
feeder_2_R3-12-47-1_load_2,232.032839,-133.364057,-231.472340,-134.337822,-0.540153,267.499511
feeder_2_R3-12-47-1_load_3,231.492719,-133.538696,-231.353698,-133.782711,-0.118618,267.118922
feeder_2_R3-12-47-1_load_4,231.484821,-133.533044,-231.344855,-133.778694,-0.119564,267.109250
feeder_2_R3-12-47-1_load_5,231.487081,-133.534361,-231.347125,-133.779994,-0.119554,267.111867
feeder_2_R3-12-47-1_load_6,231.340685,-132.513967,-230.380038,-134.177058,-0.934516,266.446300
feeder_2_R3-12-47-1_load_7,228.342157,-130.478053,-227.116673,-132.590519,-1.190569,262.795142
feeder_2_R3-12-47-1_load_8,228.245214,-130.509787,-227.095719,-132.490687,-1.114554,262.727008
feeder_2_R3-12-47-1_load_9,228.046831,-130.582467,-227.059544,-132.282525,-0.952290,262.591454
feeder_2_R3-12-47-1_load_10,225.796236,-128.079200,-223.696004,-131.597065,-2.004445,259.238338
feeder_2_R3-12-47-1_load_11,0.000000,0.000000,-223.244421,-129.528284,-0.437145,257.810516
feeder_2_R3-12-47-1_load_12,227.295739,-131.643844,0.000000,0.000000,0.339665,262.438618
feeder_2_R3-12-47-1_load_13,229.268930,-130.980770,-227.959183,-133.157173,-1.220836,263.812295
feeder_2_R3-12-47-1_load_14,228.720263,-131.158080,-227.838674,-132.593198,-0.792543,263.425483
feeder_2_R3-12-47-1_load_15,229.165675,-130.942640,-227.865845,-133.081521,-1.200226,263.697754
feeder_2_R3-12-47-1_load_16,228.980729,-130.991437,-227.815718,-132.896891,-1.065364,263.561872
feeder_2_R3-12-47-1_load_17,229.150334,-130.931678,-227.848682,-133.073709,-1.202052,263.678970
feeder_2_R3-12-47-1_load_18,228.996464,-131.010615,-227.848086,-132.910266,-1.060741,263.596179
feeder_2_R3-12-47-1_load_19,229.193487,-130.936645,-227.882433,-133.117933,-1.223464,263.729922
feeder_2_R3-12-47-1_load_20,228.473236,-131.054124,-227.628746,-132.433694,-0.761665,263.158855
feeder_2_R3-12-47-1_load_21,226.926178,-131.476649,-227.220158,-130.881116,0.000000,0.000000
feeder_2_R3-12-47-1_load_22,221.223747,-133.106056,-227.713431,-133.090052,4.644880,257.900067
feeder_2_R3-12-47-1_load_23,228.391327,-131.015794,-227.553835,-132.381747,-0.754364,263.066801
feeder_2_R3-12-47-1_load_24,225.652688,-131.859723,-226.904399,-129.581952,1.350300,261.103237
feeder_2_R3-12-47-1_load_25,229.091792,-130.803740,-227.529382,-132.293217,-0.683922,263.003449
feeder_2_R3-12-47-1_load_26,237.896243,-138.918937,-239.256484,-136.573203,1.361213,275.485007
feeder_2_R3-12-47-1_load_27,226.629718,-131.339247,0.000000,0.000000,0.408254,261.704689
feeder_2_R3-12-47-1_load_28,228.103922,-130.881478,-227.295254,-132.199875,-0.726309,262.753295
feeder_2_R3-12-47-1_load_29,228.611041,-130.705786,-227.396402,-132.727036,-1.132411,263.104902
feeder_2_R3-12-47-1_load_30,228.416713,-130.749304,-227.336768,-132.536172,-0.996425,262.961255
feeder_2_R3-12-47-1_load_31,228.079656,-130.864316,-227.267972,-132.186560,-0.727889,262.727137
feeder_2_R3-12-47-1_load_32,228.418306,-130.750391,-227.338505,-132.537009,-0.996280,262.963179
feeder_2_R3-12-47-1_load_33,226.602946,-131.320385,-226.925410,-130.679025,0.000000,0.000000
feeder_2_R3-12-47-1_load_34,227.976734,-130.799386,-227.158414,-132.130154,-0.733886,262.599536
feeder_2_R3-12-47-1_load_35,227.979286,-130.801127,-227.161198,-132.131495,-0.733654,262.602620
feeder_2_R3-12-47-1_load_36,228.076495,-130.710579,-227.130676,-132.260818,-0.860651,262.640996
feeder_2_R3-12-47-1_load_37,228.182473,-130.534790,-227.029935,-132.440165,-1.065761,262.643654
feeder_2_R3-12-47-1_load_38,226.329634,-131.074138,-226.570668,-130.564029,-1.341701,262.848250
feeder_2_R3-12-47-1_load_39,228.080304,-130.530461,-226.972941,-132.351218,-1.015609,262.550483
feeder_2_R3-12-47-1_load_40,228.486938,-130.399783,-227.063422,-132.769339,-1.333139,262.838270
feeder_2_R3-12-47-1_load_41,228.495697,-130.398488,-226.800981,-131.582163,-0.434870,262.016365
feeder_2_R3-12-47-1_load_42,225.537126,-131.313176,-227.065768,-132.777059,0.935854,260.736567
feeder_2_R3-12-47-1_load_43,228.342259,-130.422276,-227.012015,-132.634920,-1.243310,262.725430
feeder_2_R3-12-47-1_load_44,228.325322,-130.409935,-226.993000,-132.626595,-1.245667,262.704531
feeder_2_R3-12-47-1_load_45,228.424844,-130.369767,-227.007922,-132.732894,-1.330297,262.770687
feeder_2_R3-12-47-1_load_46,220.537895,-132.651649,-226.979669,-132.748520,4.594685,257.076114
feeder_2_R3-12-47-1_load_47,228.177365,-130.334470,-226.854176,-132.536760,-1.237512,262.538352
feeder_2_R3-12-47-1_load_48,228.008818,-130.396003,-226.823280,-132.359981,-1.099814,262.423062
feeder_2_R3-12-47-1_load_49,228.195707,-130.314296,-226.845862,-132.562734,-1.264180,262.544153
feeder_2_R3-12-47-1_load_50,227.942917,-130.350683,-226.751089,-132.325533,-1.106119,262.343257
feeder_2_R3-12-47-1_load_51,227.940014,-130.348701,-226.747921,-132.324008,-1.106384,262.339748
feeder_2_R3-12-47-1_load_52,227.591768,-130.457098,-226.667846,-131.968117,-0.838124,262.092155
feeder_2_R3-12-47-1_load_53,228.445112,-130.397950,-227.042177,-132.736008,-1.315735,262.802439
feeder_2_R3-12-47-1_load_54,227.885184,-130.591185,-226.929845,-132.154316,-0.867989,262.413835
feeder_2_R3-12-47-1_load_55,232.632175,-134.598509,-232.850584,-134.226419,0.233459,268.664833
feeder_2_R3-12-47-1_load_56,233.101890,-134.411630,-232.923526,-134.726058,-0.163333,268.980514
feeder_2_R3-12-47-1_load_57,232.628081,-134.595693,-232.846100,-134.224280,0.233067,268.659878
feeder_2_R3-12-47-1_load_58,233.197861,-134.330983,-232.902334,-134.848428,-0.281050,269.026985
feeder_2_R3-12-47-1_load_59,228.956379,-130.667046,-227.581829,-132.979035,-1.337191,263.518309
feeder_2_R3-12-47-1_load_60,228.834073,-130.847642,-227.681874,-132.781759,-1.119013,263.499864
feeder_2_R3-12-47-1_load_61,228.633270,-130.650798,-227.416523,-132.758701,-1.189661,263.153580
feeder_2_R3-12-47-1_load_62,224.166106,-126.796320,-221.759558,-130.821638,-2.300552,257.162774
feeder_2_R3-12-47-1_load_63,229.362449,-130.801405,-227.882219,-133.315403,-1.424199,263.826083
feeder_2_R3-12-47-1_load_64,228.064106,-130.153646,-226.640927,-132.528998,-1.337580,262.349674
feeder_2_R3-12-47-1_meter_1,232.130260,-133.328320,-231.490069,-134.440064,-0.619856,267.566038
feeder_2_R3-12-47-1_meter_2,232.032839,-133.364057,-231.472340,-134.337822,-0.540153,267.499511
feeder_2_R3-12-47-1_meter_3,231.492719,-133.538696,-231.353698,-133.782711,-0.118618,267.118922
feeder_2_R3-12-47-1_meter_4,231.484821,-133.533044,-231.344855,-133.778694,-0.119564,267.109250
feeder_2_R3-12-47-1_meter_5,231.487081,-133.534361,-231.347125,-133.779994,-0.119554,267.111867
feeder_2_R3-12-47-1_meter_6,231.340685,-132.513967,-230.380038,-134.177058,-0.934516,266.446300
feeder_2_R3-12-47-1_meter_7,228.342157,-130.478053,-227.116673,-132.590519,-1.190569,262.795142
feeder_2_R3-12-47-1_meter_8,228.245214,-130.509787,-227.095719,-132.490687,-1.114554,262.727008
feeder_2_R3-12-47-1_meter_9,228.046831,-130.582467,-227.059544,-132.282525,-0.952290,262.591454
feeder_2_R3-12-47-1_meter_10,225.796236,-128.079200,-223.696004,-131.597065,-2.004445,259.238338
feeder_2_R3-12-47-1_meter_11,0.000000,0.000000,-223.244421,-129.528284,-0.437145,257.810516
feeder_2_R3-12-47-1_meter_12,227.295739,-131.643844,0.000000,0.000000,0.339665,262.438618
feeder_2_R3-12-47-1_meter_13,229.268930,-130.980770,-227.959183,-133.157173,-1.220836,263.812295
feeder_2_R3-12-47-1_meter_14,228.720263,-131.158080,-227.838674,-132.593198,-0.792543,263.425483
feeder_2_R3-12-47-1_meter_15,229.165675,-130.942640,-227.865845,-133.081521,-1.200226,263.697754
feeder_2_R3-12-47-1_meter_16,228.980729,-130.991437,-227.815718,-132.896891,-1.065364,263.561872
feeder_2_R3-12-47-1_meter_17,229.150334,-130.931678,-227.848682,-133.073709,-1.202052,263.678970
feeder_2_R3-12-47-1_meter_18,228.996464,-131.010615,-227.848086,-132.910266,-1.060741,263.596179
feeder_2_R3-12-47-1_meter_19,229.193487,-130.936645,-227.882433,-133.117933,-1.223464,263.729922
feeder_2_R3-12-47-1_meter_20,228.473236,-131.054124,-227.628746,-132.433694,-0.761665,263.158855
feeder_2_R3-12-47-1_meter_21,226.926178,-131.476649,-227.220158,-130.881116,0.000000,0.000000
feeder_2_R3-12-47-1_meter_22,221.223747,-133.106056,-227.713431,-133.090052,4.644880,257.900067
feeder_2_R3-12-47-1_meter_23,228.391327,-131.015794,-227.553835,-132.381747,-0.754364,263.066801
feeder_2_R3-12-47-1_meter_24,225.652688,-131.859723,-226.904399,-129.581952,1.350300,261.103237
feeder_2_R3-12-47-1_meter_25,229.091792,-130.803740,-227.529382,-132.293217,-0.683922,263.003449
feeder_2_R3-12-47-1_meter_26,237.896243,-138.918937,-239.256484,-136.573203,1.361213,275.485007
feeder_2_R3-12-47-1_meter_27,226.629718,-131.339247,0.000000,0.000000,0.408254,261.704689
feeder_2_R3-12-47-1_meter_28,228.103922,-130.881478,-227.295254,-132.199875,-0.726309,262.753295
feeder_2_R3-12-47-1_meter_29,228.611041,-130.705786,-227.396402,-132.727036,-1.132411,263.104902
feeder_2_R3-12-47-1_meter_30,228.416713,-130.749304,-227.336768,-132.536172,-0.996425,262.961255
feeder_2_R3-12-47-1_meter_31,228.079656,-130.864316,-227.267972,-132.186560,-0.727889,262.727137
feeder_2_R3-12-47-1_meter_32,228.418306,-130.750391,-227.338505,-132.537009,-0.996280,262.963179
feeder_2_R3-12-47-1_meter_33,226.602946,-131.320385,-226.925410,-130.679025,0.000000,0.000000
feeder_2_R3-12-47-1_meter_34,227.976734,-130.799386,-227.158414,-132.130154,-0.733886,262.599536
feeder_2_R3-12-47-1_meter_35,227.979286,-130.801127,-227.161198,-132.131495,-0.733654,262.602620
feeder_2_R3-12-47-1_meter_36,228.076495,-130.710579,-227.130676,-132.260818,-0.860651,262.640996
feeder_2_R3-12-47-1_meter_37,228.182473,-130.534790,-227.029935,-132.440165,-1.065761,262.643654
feeder_2_R3-12-47-1_meter_38,226.329634,-131.074138,-226.570668,-130.564029,-1.341701,262.848250
feeder_2_R3-12-47-1_meter_39,228.080304,-130.530461,-226.972941,-132.351218,-1.015609,262.550483
feeder_2_R3-12-47-1_meter_40,228.486938,-130.399783,-227.063422,-132.769339,-1.333139,262.838270
feeder_2_R3-12-47-1_meter_41,228.495697,-130.398488,-226.800981,-131.582163,-0.434870,262.016365
feeder_2_R3-12-47-1_meter_42,225.537126,-131.313176,-227.065768,-132.777059,0.935854,260.736567
feeder_2_R3-12-47-1_meter_43,228.342259,-130.422276,-227.012015,-132.634920,-1.243310,262.725430
feeder_2_R3-12-47-1_meter_44,228.325322,-130.409935,-226.993000,-132.626595,-1.245667,262.704531
feeder_2_R3-12-47-1_meter_45,228.424844,-130.369767,-227.007922,-132.732894,-1.330297,262.770687
feeder_2_R3-12-47-1_meter_46,220.537895,-132.651649,-226.979669,-132.748520,4.594685,257.076114
feeder_2_R3-12-47-1_meter_47,228.177365,-130.334470,-226.854176,-132.536760,-1.237512,262.538352
feeder_2_R3-12-47-1_meter_48,228.008818,-130.396003,-226.823280,-132.359981,-1.099814,262.423062
feeder_2_R3-12-47-1_meter_49,228.195707,-130.314296,-226.845862,-132.562734,-1.264180,262.544153
feeder_2_R3-12-47-1_meter_50,227.942917,-130.350683,-226.751089,-132.325533,-1.106119,262.343257
feeder_2_R3-12-47-1_meter_51,227.940014,-130.348701,-226.747921,-132.324008,-1.106384,262.339748
feeder_2_R3-12-47-1_meter_52,227.591768,-130.457098,-226.667846,-131.968117,-0.838124,262.092155
feeder_2_R3-12-47-1_meter_53,228.445112,-130.397950,-227.042177,-132.736008,-1.315735,262.802439
feeder_2_R3-12-47-1_meter_54,227.885184,-130.591185,-226.929845,-132.154316,-0.867989,262.413835
feeder_2_R3-12-47-1_meter_55,232.632175,-134.598509,-232.850584,-134.226419,0.233459,268.664833
feeder_2_R3-12-47-1_meter_56,233.101890,-134.411630,-232.923526,-134.726058,-0.163333,268.980514
feeder_2_R3-12-47-1_meter_57,232.628081,-134.595693,-232.846100,-134.224280,0.233067,268.659878
feeder_2_R3-12-47-1_meter_58,233.197861,-134.330983,-232.902334,-134.848428,-0.281050,269.026985
feeder_2_R3-12-47-1_meter_59,228.956379,-130.667046,-227.581829,-132.979035,-1.337191,263.518309
feeder_2_R3-12-47-1_meter_60,228.834073,-130.847642,-227.681874,-132.781759,-1.119013,263.499864
feeder_2_R3-12-47-1_meter_61,228.633270,-130.650798,-227.416523,-132.758701,-1.189661,263.153580
feeder_2_R3-12-47-1_meter_62,224.166106,-126.796320,-221.759558,-130.821638,-2.300552,257.162774
feeder_2_R3-12-47-1_meter_63,229.362449,-130.801405,-227.882219,-133.315403,-1.424199,263.826083
feeder_2_R3-12-47-1_meter_64,228.064106,-130.153646,-226.640927,-132.528998,-1.337580,262.349674
feeder_2_R3-12-47-1_meter_65,6186.621195,-3613.433162,-6222.698331,-3551.216761,36.089444,7164.637130
feeder_2_R3-12-47-1_node_1,5974.736966,-3408.802526,-5938.134400,-3472.089631,-35.910891,6874.494479
feeder_2_R3-12-47-1_node_2,5944.385470,-3394.886580,-5909.524792,-3453.059926,-32.699231,6839.399529
feeder_2_R3-12-47-1_node_4,6186.630969,-3613.391418,-6222.667174,-3551.246045,36.048150,7164.624597
feeder_2_R3-12-47-1_node_5,6050.605127,-3480.713896,-6038.760963,-3501.352230,-11.390862,6977.376187
feeder_2_R3-12-47-1_node_6,6036.713439,-3467.215642,-6019.992879,-3496.250994,-16.191041,6958.211593
feeder_2_R3-12-47-1_node_7,6032.988487,-3464.621942,-6015.885012,-3494.320883,-16.574895,6953.686684
feeder_2_R3-12-47-1_node_8,6031.396483,-3463.510069,-6014.126448,-3493.497650,-16.741855,6951.751110
feeder_2_R3-12-47-1_node_9,6031.859213,-3463.845310,-6014.648040,-3493.730902,-16.682875,6952.319736
feeder_2_R3-12-47-1_node_10,6031.501492,-3463.599485,-6014.256368,-3493.543918,-16.716915,6951.886822
feeder_2_R3-12-47-1_node_11,6031.420361,-3463.536792,-6014.161524,-3493.504983,-16.730651,6951.785160
feeder_2_R3-12-47-1_node_12,6031.624946,-3463.683886,-6014.391162,-3493.608665,-16.705545,6952.036007
feeder_2_R3-12-47-1_node_13,6031.478911,-3463.571040,-6014.220443,-3493.538584,-16.730271,6951.853018
feeder_2_R3-12-47-1_node_14,6036.714131,-3467.213311,-6019.991206,-3496.252758,-16.193407,6958.211026
feeder_2_R3-12-47-1_node_15,6022.692680,-3453.701495,-6001.137312,-3491.058558,-20.944076,6938.901330
feeder_2_R3-12-47-1_node_16,6011.111022,-3442.538318,-5985.561927,-3486.769417,-24.870256,6922.950350
feeder_2_R3-12-47-1_node_17,6010.862358,-3442.343582,-5985.268998,-3486.651363,-24.914603,6922.637428
feeder_2_R3-12-47-1_node_18,6011.119409,-3442.501501,-5985.534331,-3486.795058,-24.906639,6922.939048
feeder_2_R3-12-47-1_node_19,6011.111145,-3442.537905,-5985.561630,-3486.769730,-24.870676,6922.950250
feeder_2_R3-12-47-1_node_20,5994.506222,-3426.513575,-5963.212230,-3480.632529,-30.517565,6900.065829
feeder_2_R3-12-47-1_node_21,5991.991636,-3424.156357,-5959.931227,-3479.624335,-31.308365,6896.747302
feeder_2_R3-12-47-1_node_22,5989.995488,-3422.269283,-5957.324849,-3478.836493,-31.951806,6894.111942
feeder_2_R3-12-47-1_node_23,5989.993289,-3422.279664,-5957.332726,-3478.829416,-31.941776,6894.115191
feeder_2_R3-12-47-1_node_24,5989.997688,-3422.258903,-5957.316972,-3478.843569,-31.961836,6894.108692
feeder_2_R3-12-47-1_node_25,5987.701288,-3420.102301,-5954.330905,-3477.930088,-32.689720,6891.084003
feeder_2_R3-12-47-1_node_26,5987.701278,-3420.102257,-5954.330905,-3477.930088,-32.689780,6891.083969
feeder_2_R3-12-47-1_node_27,5987.613005,-3420.121565,0.000000,0.000000,-32.691670,6890.944619
feeder_2_R3-12-47-1_node_28,5985.506579,-3418.019563,-5951.457807,-3477.038715,-33.387625,6888.207931
feeder_2_R3-12-47-1_node_29,5980.736365,-3413.449877,-5945.148825,-3475.095365,-34.931271,6881.911410
feeder_2_R3-12-47-1_node_30,5978.283539,-3411.081463,-5941.883154,-3474.082525,-35.730768,6878.674757
feeder_2_R3-12-47-1_node_31,5978.276794,-3411.083666,-5941.884060,-3474.072317,-35.731885,6878.675871
feeder_2_R3-12-47-1_node_32,5976.794610,-3409.641725,-5939.897404,-3473.473653,-36.217820,6876.693924
feeder_2_R3-12-47-1_node_33,5976.796852,-3409.631599,-5939.889661,-3473.480653,-36.227683,6876.690801
feeder_2_R3-12-47-1_node_34,5974.736966,-3408.802526,-5938.134400,-3472.089631,-35.910891,6874.494479
feeder_2_R3-12-47-1_node_35,5974.739208,-3408.792400,-5938.126657,-3472.096632,-35.920754,6874.491356
feeder_2_R3-12-47-1_node_36,5974.734724,-3408.812652,-5938.142144,-3472.082631,-35.901028,6874.497602
feeder_2_R3-12-47-1_node_37,5974.736966,-3408.802526,-5938.134400,-3472.089631,-35.910891,6874.494479
feeder_2_R3-12-47-1_node_38,5974.688555,-3408.777790,-5938.097377,-3472.064864,-35.907526,6874.446770
feeder_2_R3-12-47-1_node_39,5974.688543,-3408.777530,-5938.097181,-3472.064958,-35.907720,6874.446633
feeder_2_R3-12-47-1_node_40,5974.599901,-3408.751964,-5938.045942,-3472.009365,-35.884571,6874.368607
feeder_2_R3-12-47-1_node_41,5974.548748,-3408.725131,-5937.960046,-3471.945967,-35.867206,6874.315230
feeder_2_R3-12-47-1_node_42,5974.476548,-3408.687257,-5937.838809,-3471.856486,-35.842697,6874.239892
feeder_2_R3-12-47-1_node_43,5974.478653,-3408.683854,-5937.815521,-3471.840498,-35.838072,6874.239767
feeder_2_R3-12-47-1_node_44,0.000000,0.000000,-5938.044229,-3472.007893,0.000000,0.000000
feeder_2_R3-12-47-1_node_45,5974.291115,-3408.669754,-5937.980725,-3471.883484,-35.814790,6874.118688
feeder_2_R3-12-47-1_node_46,5974.228561,-3408.663761,0.000000,0.000000,0.000000,0.000000
feeder_2_R3-12-47-1_node_47,5974.249192,-3408.644125,-5937.969298,-3471.850595,0.000000,0.000000
feeder_2_R3-12-47-1_node_48,0.000000,0.000000,0.000000,0.000000,-35.803957,6874.084792
feeder_2_R3-12-47-1_node_49,0.000000,0.000000,0.000000,0.000000,-35.766033,6873.934670
feeder_2_R3-12-47-1_node_50,5974.194982,-3408.629297,-5937.952400,-3471.831207,-35.801880,6874.072049
feeder_2_R3-12-47-1_node_51,5969.912047,-3406.839318,-5933.986648,-3468.827132,-35.188981,6869.323585
feeder_2_R3-12-47-1_node_52,5961.080749,-3403.266152,-5926.412494,-3462.845577,-33.850199,6859.869137
feeder_2_R3-12-47-1_node_53,5960.965327,-3403.238460,-5926.325011,-3462.757098,-33.811683,6859.742219
feeder_2_R3-12-47-1_node_54,5960.965307,-3403.238175,-5926.324741,-3462.757228,-33.811938,6859.742039
feeder_2_R3-12-47-1_node_55,5960.919505,-3403.227187,-5926.290025,-3462.722117,-33.796654,6859.691675
feeder_2_R3-12-47-1_node_56,0.000000,0.000000,-5926.259662,-3462.679178,0.000000,0.000000
feeder_2_R3-12-47-1_node_57,5960.820445,-3403.197554,-5926.258884,-3462.676264,-33.783872,6859.584423
feeder_2_R3-12-47-1_node_58,5960.823774,-3403.217957,0.000000,0.000000,0.000000,0.000000
feeder_2_R3-12-47-1_node_59,5960.736416,-3403.209535,0.000000,0.000000,0.000000,0.000000
feeder_2_R3-12-47-1_node_60,5960.822598,-3403.206822,-5926.196141,-3462.644543,-33.752446,6859.550890
feeder_2_R3-12-47-1_node_61,5960.512169,-3403.141585,-5925.895392,-3462.396043,-33.610830,6859.099900
feeder_2_R3-12-47-1_node_62,0.000000,0.000000,-5925.853190,-3462.354550,0.000000,0.000000
feeder_2_R3-12-47-1_node_63,5960.482214,-3403.133204,0.000000,0.000000,0.000000,0.000000
feeder_2_R3-12-47-1_node_64,0.000000,0.000000,0.000000,0.000000,-33.567134,6859.000229
feeder_2_R3-12-47-1_node_65,0.000000,0.000000,0.000000,0.000000,-33.534701,6858.926177
feeder_2_R3-12-47-1_node_66,5960.299777,-3403.102713,-5925.671232,-3462.220684,-33.526518,6858.752731
feeder_2_R3-12-47-1_node_67,5960.247866,-3403.080344,-5925.619302,-3462.188652,-33.512163,6858.674346
feeder_2_R3-12-47-1_node_68,5960.282190,-3403.102894,-5925.641533,-3462.201651,-33.515535,6858.712603
feeder_2_R3-12-47-1_node_69,5960.062673,-3402.725914,-5925.355713,-3462.128980,-33.792150,6858.807983
feeder_2_R3-12-47-1_node_70,5960.062973,-3402.723921,-5925.353996,-3462.130301,-33.793897,6858.807338
feeder_2_R3-12-47-1_node_71,5959.501500,-3402.862623,-5925.254569,-3461.507292,-33.441083,6858.475897
...
feeder_2_triplex_load_R3-12-47-1_tm_2,-0.299022,114.031724,-0.299022,114.031724,0.000000,0.000000
feeder_2_triplex_load_R3-12-47-1_tm_6,99.377024,-56.881593,99.377024,-56.881593,0.000000,0.000000
feeder_2_triplex_load_R3-12-47-1_tm_10,-99.030394,-57.795349,-99.030394,-57.795349,0.000000,0.000000
feeder_2_triplex_load_R3-12-47-1_tm_13,-98.765370,-57.648736,-98.765370,-57.648736,0.000000,0.000000
feeder_2_triplex_load_R3-12-47-1_tm_16,99.337900,-56.744385,99.337900,-56.744385,0.000000,0.000000
feeder_2_triplex_load_R3-12-47-1_tm_17,-98.811230,-57.723584,-98.811230,-57.723584,0.000000,0.000000
feeder_2_triplex_load_R3-12-47-1_tm_18,-0.539834,114.349678,-0.539834,114.349678,0.000000,0.000000
feeder_2_triplex_load_R3-12-47-1_tm_20,-98.692585,-57.611700,-98.692585,-57.611700,0.000000,0.000000
feeder_2_triplex_load_R3-12-47-1_tm_23,99.208248,-56.715969,99.208248,-56.715969,0.000000,0.000000
feeder_2_triplex_load_R3-12-47-1_tm_26,99.331350,-56.742598,99.331350,-56.742598,0.000000,0.000000
feeder_2_triplex_load_R3-12-47-1_tm_29,-0.527994,114.321751,-0.527994,114.321751,0.000000,0.000000
feeder_2_triplex_load_R3-12-47-1_tm_31,99.167752,-56.665749,99.167752,-56.665749,0.000000,0.000000
feeder_2_triplex_load_R3-12-47-1_tm_33,-0.509981,114.128444,-0.509981,114.128444,0.000000,0.000000
feeder_2_triplex_load_R3-12-47-1_tm_35,-98.441777,-57.343505,-98.441777,-57.343505,0.000000,0.000000
feeder_2_triplex_load_R3-12-47-1_tm_36,98.902314,-56.627264,98.902314,-56.627264,0.000000,0.000000
feeder_2_triplex_load_R3-12-47-1_tm_39,99.023207,-56.610606,99.023207,-56.610606,0.000000,0.000000
feeder_2_triplex_load_R3-12-47-1_tm_40,-98.507085,-57.471878,-98.507085,-57.471878,0.000000,0.000000
feeder_2_triplex_load_R3-12-47-1_tm_41,-0.437574,113.904723,-0.437574,113.904723,0.000000,0.000000
feeder_2_triplex_load_R3-12-47-1_tm_43,-98.453842,-57.373846,-98.453842,-57.373846,0.000000,0.000000
feeder_2_triplex_load_R3-12-47-1_tm_44,-0.398469,113.851453,-0.398469,113.851453,0.000000,0.000000
feeder_2_triplex_load_R3-12-47-1_tm_45,99.081705,-56.645774,99.081705,-56.645774,0.000000,0.000000
feeder_2_triplex_load_R3-12-47-1_tm_46,-98.600376,-57.550973,-98.600376,-57.550973,0.000000,0.000000
feeder_2_triplex_load_R3-12-47-1_tm_47,-0.503881,114.083245,-0.503881,114.083245,0.000000,0.000000
feeder_2_triplex_load_R3-12-47-1_tm_50,-98.412264,-57.315717,-98.412264,-57.315717,0.000000,0.000000
feeder_2_triplex_load_R3-12-47-1_tm_51,98.570818,-56.440956,98.570818,-56.440956,0.000000,0.000000
feeder_2_triplex_load_R3-12-47-1_tm_52,-96.790807,-55.707265,-96.790807,-55.707265,0.000000,0.000000
feeder_2_triplex_load_R3-12-47-1_tm_55,-96.715145,-55.525454,-96.715145,-55.525454,0.000000,0.000000
feeder_2_triplex_load_R3-12-47-1_tm_58,-98.336661,-57.372716,-98.336661,-57.372716,0.000000,0.000000
feeder_2_triplex_load_R3-12-47-1_tm_59,98.826003,-56.510645,98.826003,-56.510645,0.000000,0.000000
feeder_2_triplex_load_R3-12-47-1_tm_60,-98.354355,-57.399820,-98.354355,-57.399820,0.000000,0.000000
feeder_2_triplex_load_R3-12-47-1_tm_62,-97.996214,-56.884731,-97.996214,-56.884731,0.000000,0.000000
feeder_2_triplex_load_R3-12-47-1_tm_63,98.867839,-56.511030,98.867839,-56.511030,0.000000,0.000000
feeder_2_triplex_load_R3-12-47-1_tm_64,-98.270013,-57.255436,-98.270013,-57.255436,0.000000,0.000000
feeder_2_triplex_load_R3-12-47-1_tm_69,-0.466181,113.793807,-0.466181,113.793807,0.000000,0.000000
feeder_2_triplex_load_R3-12-47-1_tm_73,-96.673281,-55.492117,-96.673281,-55.492117,0.000000,0.000000
feeder_2_triplex_load_R3-12-47-1_tm_74,-0.443566,113.745246,-0.443566,113.745246,0.000000,0.000000
feeder_2_triplex_load_R3-12-47-1_tm_75,96.706150,-56.032068,96.706150,-56.032068,0.000000,0.000000
feeder_2_triplex_load_R3-12-47-1_tm_76,-98.326367,-57.298772,-98.326367,-57.298772,0.000000,0.000000
feeder_2_triplex_load_R3-12-47-1_tm_77,-0.516651,113.862855,-0.516651,113.862855,0.000000,0.000000
feeder_2_triplex_load_R3-12-47-1_tm_78,99.025507,-56.554203,99.025507,-56.554203,0.000000,0.000000
feeder_2_triplex_load_R3-12-47-1_tm_79,-98.455075,-57.470293,-98.455075,-57.470293,0.000000,0.000000
feeder_2_triplex_load_R3-12-47-1_tm_80,-0.517376,113.929483,-0.517376,113.929483,0.000000,0.000000
feeder_2_triplex_load_R3-12-47-1_tm_81,98.869795,-56.509594,98.869795,-56.509594,0.000000,0.000000
feeder_2_triplex_load_R3-12-47-1_tm_87,98.872469,-56.546883,98.872469,-56.546883,0.000000,0.000000
feeder_2_triplex_load_R3-12-47-1_tm_89,98.398001,-56.469912,98.398001,-56.469912,0.000000,0.000000
feeder_2_triplex_load_R3-12-47-1_tm_92,-98.197184,-56.663738,-98.197184,-56.663738,0.000000,0.000000
feeder_2_triplex_load_R3-12-47-1_tm_93,-0.096068,113.534069,-0.096068,113.534069,0.000000,0.000000
feeder_2_triplex_load_R3-12-47-1_tm_95,-0.266180,113.321865,-0.266180,113.321865,0.000000,0.000000
feeder_2_triplex_load_R3-12-47-1_tm_97,-0.417688,113.567324,-0.417688,113.567324,0.000000,0.000000
feeder_2_triplex_load_R3-12-47-1_tm_98,98.973664,-56.565281,98.973664,-56.565281,0.000000,0.000000
feeder_2_triplex_load_R3-12-47-1_tm_99,-98.425688,-57.418624,-98.425688,-57.418624,0.000000,0.000000
feeder_2_triplex_load_R3-12-47-1_tm_101,98.545560,-56.479413,98.545560,-56.479413,0.000000,0.000000
feeder_2_triplex_load_R3-12-47-1_tm_102,-98.190039,-57.200152,-98.190039,-57.200152,0.000000,0.000000
feeder_2_triplex_load_R3-12-47-1_tm_104,98.667773,-56.460275,98.667773,-56.460275,0.000000,0.000000
feeder_2_triplex_load_R3-12-47-1_tm_105,-98.226508,-57.276864,-98.226508,-57.276864,0.000000,0.000000
feeder_2_triplex_load_R3-12-47-1_tm_106,-0.381258,113.535801,-0.381258,113.535801,0.000000,0.000000
feeder_2_triplex_load_R3-12-47-1_tm_108,-97.910754,-56.905141,-97.910754,-56.905141,0.000000,0.000000
feeder_2_triplex_load_R3-12-47-1_tm_110,-0.448297,113.674345,-0.448297,113.674345,0.000000,0.000000
feeder_2_triplex_load_R3-12-47-1_tm_112,-0.269086,113.091044,-0.269086,113.091044,0.000000,0.000000
feeder_2_triplex_load_R3-12-47-1_tm_113,98.783206,-56.507262,98.783206,-56.507262,0.000000,0.000000
feeder_2_triplex_load_R3-12-47-1_tm_117,-0.250178,113.079468,-0.250178,113.079468,0.000000,0.000000
feeder_2_triplex_load_R3-12-47-1_tm_118,98.845784,-56.516653,98.845784,-56.516653,0.000000,0.000000
feeder_2_triplex_load_R3-12-47-1_tm_121,98.686409,-56.487958,98.686409,-56.487958,0.000000,0.000000
feeder_2_triplex_load_R3-12-47-1_tm_126,-0.471439,113.715793,-0.471439,113.715793,0.000000,0.000000
feeder_2_triplex_load_R3-12-47-1_tm_127,98.843112,-56.509818,98.843112,-56.509818,0.000000,0.000000
feeder_2_triplex_load_R3-12-47-1_tm_128,-98.334961,-57.361801,-98.334961,-57.361801,0.000000,0.000000
feeder_2_triplex_load_R3-12-47-1_tm_134,-98.173347,-57.243935,-98.173347,-57.243935,0.000000,0.000000
feeder_2_triplex_load_R3-12-47-1_tm_135,-0.464309,113.571836,-0.464309,113.571836,0.000000,0.000000
feeder_2_triplex_load_R3-12-47-1_tm_136,98.597801,-56.397668,98.597801,-56.397668,0.000000,0.000000
feeder_2_triplex_load_R3-12-47-1_tm_138,-0.377509,113.381224,-0.377509,113.381224,0.000000,0.000000
feeder_2_triplex_load_R3-12-47-1_tm_141,-0.377322,113.367412,-0.377322,113.367412,0.000000,0.000000
feeder_2_triplex_load_R3-12-47-1_tm_142,97.411744,-56.456505,97.411744,-56.456505,0.000000,0.000000
feeder_2_triplex_load_R3-12-47-1_tm_143,-0.385621,114.574287,-0.385621,114.574287,0.000000,0.000000
feeder_2_triplex_load_R3-12-47-1_tm_145,-0.015996,113.411337,-0.015996,113.411337,0.000000,0.000000
feeder_2_triplex_load_R3-12-47-1_tm_146,99.636714,-57.033391,99.636714,-57.033391,0.000000,0.000000
feeder_2_triplex_load_R3-12-47-1_tm_147,-0.452975,114.759048,-0.452975,114.759048,0.000000,0.000000
feeder_2_triplex_load_R3-12-47-1_tm_151,-0.180012,114.032942,-0.180012,114.032942,0.000000,0.000000
feeder_2_triplex_load_R3-12-47-1_tm_152,99.037969,-56.919096,99.037969,-56.919096,0.000000,0.000000
feeder_2_triplex_load_R3-12-47-1_tm_153,-0.212654,114.102170,-0.212654,114.102170,0.000000,0.000000
feeder_2_triplex_load_R3-12-47-1_tm_154,99.432025,-57.001225,99.432025,-57.001225,0.000000,0.000000
feeder_2_triplex_load_R3-12-47-1_tm_156,99.572957,-56.908899,99.572957,-56.908899,0.000000,0.000000
feeder_2_triplex_load_R3-12-47-1_tm_157,-99.045705,-57.838094,-99.045705,-57.838094,0.000000,0.000000
feeder_2_triplex_load_R3-12-47-1_tm_160,-98.559147,-57.593620,-98.559147,-57.593620,0.000000,0.000000
feeder_2_triplex_load_R3-12-47-1_tm_161,-0.512223,114.034874,-0.512223,114.034874,0.000000,0.000000
feeder_2_triplex_load_R3-12-47-1_tm_163,-98.233493,-57.099949,-98.233493,-57.099949,0.000000,0.000000
feeder_2_triplex_load_R3-12-47-1_tm_164,98.870213,-56.531078,98.870213,-56.531078,0.000000,0.000000
feeder_2_triplex_load_R3-12-47-1_tm_169,-98.673205,-57.669676,-98.673205,-57.669676,0.000000,0.000000
feeder_2_triplex_load_R3-12-47-1_tm_170,99.276093,-56.651690,99.276093,-56.651690,0.000000,0.000000
feeder_2_triplex_load_R3-12-47-1_tm_174,98.845308,-56.510628,98.845308,-56.510628,0.000000,0.000000
feeder_2_triplex_load_R3-12-47-1_tm_177,-99.028468,-57.691117,-99.028468,-57.691117,0.000000,0.000000
feeder_2_triplex_load_R3-12-47-1_tm_180,-0.288694,114.163549,-0.288694,114.163549,0.000000,0.000000
feeder_2_triplex_load_R3-12-47-1_tm_182,-98.997859,-57.661095,-98.997859,-57.661095,0.000000,0.000000
feeder_2_triplex_load_R3-12-47-1_tm_184,99.684808,-56.998001,99.684808,-56.998001,0.000000,0.000000
feeder_2_triplex_load_R3-12-47-1_tm_186,-0.473924,114.699142,-0.473924,114.699142,0.000000,0.000000
feeder_2_triplex_load_R3-12-47-1_tm_187,98.997878,-56.421766,98.997878,-56.421766,0.000000,0.000000
feeder_2_triplex_load_R3-12-47-1_tm_188,-98.281767,-57.515540,-98.281767,-57.515540,0.000000,0.000000
feeder_2_triplex_load_R3-12-47-1_tm_190,99.221779,-56.520723,99.221779,-56.520723,0.000000,0.000000
feeder_2_triplex_load_R3-12-47-1_tm_192,99.072535,-56.497376,99.072535,-56.497376,0.000000,0.000000
feeder_2_triplex_load_R3-12-47-1_tm_193,-98.393374,-57.564112,-98.393374,-57.564112,0.000000,0.000000
feeder_2_triplex_load_R3-12-47-1_tm_194,96.023800,-55.913899,96.023800,-55.913899,0.000000,0.000000
feeder_2_triplex_load_R3-12-47-1_tm_195,-98.088964,-57.127004,-98.088964,-57.127004,0.000000,0.000000
feeder_2_triplex_load_R3-12-47-1_tm_198,-98.090068,-57.186927,-98.090068,-57.186927,0.000000,0.000000
feeder_2_triplex_load_R3-12-47-1_tm_199,0.280315,111.352480,0.280315,111.352480,0.000000,0.000000
feeder_2_triplex_load_R3-12-47-1_tm_201,-0.650439,114.062145,-0.650439,114.062145,0.000000,0.000000
feeder_2_triplex_load_R3-12-47-1_tm_203,-0.606770,113.925525,-0.606770,113.925525,0.000000,0.000000
feeder_2_triplex_load_R3-12-47-1_tm_204,99.196512,-56.520218,99.196512,-56.520218,0.000000,0.000000
feeder_2_triplex_load_R3-12-47-1_tm_206,-0.644921,114.045638,-0.644921,114.045638,0.000000,0.000000
feeder_2_triplex_load_R3-12-47-1_tm_210,-0.581326,113.892558,-0.581326,113.892558,0.000000,0.000000
feeder_2_triplex_load_R3-12-47-1_tm_211,98.649344,-56.148198,98.649344,-56.148198,0.000000,0.000000
feeder_2_triplex_load_R3-12-47-1_tm_215,98.252987,-55.991550,98.252987,-55.991550,0.000000,0.000000
feeder_2_triplex_load_R3-12-47-1_tm_216,-0.493614,112.717545,-0.493614,112.717545,0.000000,0.000000
feeder_2_triplex_load_R3-12-47-1_tm_217,98.533556,-56.071871,98.533556,-56.071871,0.000000,0.000000
feeder_2_triplex_load_R3-12-47-1_tm_220,-0.732219,113.263896,-0.732219,113.263896,0.000000,0.000000
feeder_2_triplex_load_R3-12-47-1_tm_223,98.221830,-56.004427,98.221830,-56.004427,0.000000,0.000000
feeder_2_triplex_load_R3-12-47-1_tm_224,-97.521750,-57.053582,-97.521750,-57.053582,0.000000,0.000000
feeder_2_triplex_load_R3-12-47-1_tm_227,98.600446,-56.081913,98.600446,-56.081913,0.000000,0.000000
feeder_2_triplex_load_R3-12-47-1_tm_228,-97.800122,-57.393854,-97.800122,-57.393854,0.000000,0.000000
feeder_2_triplex_load_R3-12-47-1_tm_232,-0.725644,112.746672,-0.725644,112.746672,0.000000,0.000000
feeder_2_triplex_load_R3-12-47-1_tm_234,-97.386713,-57.157149,-97.386713,-57.157149,0.000000,0.000000
feeder_2_triplex_load_R3-12-47-1_tm_236,-0.756796,112.543549,-0.756796,112.543549,0.000000,0.000000
feeder_2_triplex_load_R3-12-47-1_tm_241,-0.727248,112.477220,-0.727248,112.477220,0.000000,0.000000
feeder_2_triplex_load_R3-12-47-1_tm_242,97.779058,-55.547485,97.779058,-55.547485,0.000000,0.000000
feeder_2_triplex_load_R3-12-47-1_tm_244,-0.801115,112.331445,-0.801115,112.331445,0.000000,0.000000
feeder_2_triplex_load_R3-12-47-1_tm_245,97.728399,-55.549544,97.728399,-55.549544,0.000000,0.000000
feeder_2_triplex_load_R3-12-47-1_tm_247,-0.784113,112.305926,-0.784113,112.305926,0.000000,0.000000
feeder_2_triplex_load_R3-12-47-1_tm_249,-0.551623,111.763623,-0.551623,111.763623,0.000000,0.000000
feeder_2_triplex_load_R3-12-47-1_tm_251,-96.230797,-56.638124,-96.230797,-56.638124,0.000000,0.000000
feeder_2_triplex_load_R3-12-47-1_tm_254,-0.875499,111.437135,-0.875499,111.437135,0.000000,0.000000
feeder_2_triplex_load_R3-12-47-1_tm_256,-0.843581,111.095948,-0.843581,111.095948,0.000000,0.000000
feeder_2_triplex_load_R3-12-47-1_tm_257,-95.639260,-56.066141,-95.639260,-56.066141,0.000000,0.000000
feeder_2_triplex_load_R3-12-47-1_tm_258,-0.692999,110.712111,-0.692999,110.712111,0.000000,0.000000
feeder_2_triplex_load_R3-12-47-1_tm_260,-96.084863,-55.491281,-96.084863,-55.491281,0.000000,0.000000
feeder_2_triplex_load_R3-12-47-1_tm_261,0.067517,110.729698,0.067517,110.729698,0.000000,0.000000
feeder_2_triplex_load_R3-12-47-1_tm_262,98.748439,-56.142869,98.748439,-56.142869,0.000000,0.000000
feeder_2_triplex_load_R3-12-47-1_tm_267,99.499302,-56.871229,99.499302,-56.871229,0.000000,0.000000
feeder_2_triplex_load_R3-12-47-1_tm_268,-98.970223,-57.776981,-98.970223,-57.776981,0.000000,0.000000
feeder_2_triplex_load_R3-12-47-1_tm_270,95.997777,-55.499173,95.997777,-55.499173,0.000000,0.000000
feeder_2_triplex_load_R3-12-47-1_tm_274,-98.496134,-57.444445,-98.496134,-57.444445,0.000000,0.000000
feeder_2_triplex_load_R3-12-47-1_tm_275,-0.385964,113.850281,-0.385964,113.850281,0.000000,0.000000
feeder_2_triplex_load_R3-12-47-1_tm_279,-98.291088,-57.175200,-98.291088,-57.175200,0.000000,0.000000
feeder_2_triplex_load_R3-12-47-1_tm_283,-0.467169,114.086193,-0.467169,114.086193,0.000000,0.000000
feeder_2_triplex_load_R3-12-47-1_tm_284,99.104987,-56.689756,99.104987,-56.689756,0.000000,0.000000
feeder_2_triplex_load_R3-12-47-1_tm_286,-0.439708,114.034939,-0.439708,114.034939,0.000000,0.000000
feeder_2_triplex_load_R3-12-47-1_tm_288,-98.745206,-57.714228,-98.745206,-57.714228,0.000000,0.000000
feeder_2_triplex_load_R3-12-47-1_tm_291,-98.675067,-57.626996,-98.675067,-57.626996,0.000000,0.000000
feeder_2_triplex_load_R3-12-47-1_tm_292,-0.532310,114.215761,-0.532310,114.215761,0.000000,0.000000
feeder_2_triplex_load_R3-12-47-1_tm_293,99.112656,-56.665014,99.112656,-56.665014,0.000000,0.000000
feeder_2_triplex_load_R3-12-47-1_tm_296,99.019650,-56.657442,99.019650,-56.657442,0.000000,0.000000
feeder_2_triplex_load_R3-12-47-1_tm_299,96.309718,-56.196340,96.309718,-56.196340,0.000000,0.000000
feeder_2_triplex_load_R3-12-47-1_tm_301,0.484107,111.374134,0.484107,111.374134,0.000000,0.000000
feeder_2_triplex_load_R3-12-47-1_tm_302,98.681904,-56.564059,98.681904,-56.564059,0.000000,0.000000
feeder_2_triplex_load_R3-12-47-1_tm_304,0.679938,111.035592,0.679938,111.035592,0.000000,0.000000
feeder_2_triplex_load_R3-12-47-1_tm_305,-98.572194,-57.495552,-98.572194,-57.495552,0.000000,0.000000
feeder_2_triplex_load_R3-12-47-1_tm_306,-0.417066,113.979954,-0.417066,113.979954,0.000000,0.000000
feeder_2_triplex_load_R3-12-47-1_tm_307,-98.340493,-57.229118,-98.340493,-57.229118,0.000000,0.000000
feeder_2_triplex_load_R3-12-47-1_tm_308,-0.341868,113.675033,-0.341868,113.675033,0.000000,0.000000
feeder_2_triplex_load_R3-12-47-1_tm_309,-98.595356,-57.522217,-98.595356,-57.522217,0.000000,0.000000
feeder_2_triplex_load_R3-12-47-1_tm_312,-0.347303,113.640011,-0.347303,113.640011,0.000000,0.000000
feeder_2_triplex_load_R3-12-47-1_tm_313,96.673590,-56.096002,96.673590,-56.096002,0.000000,0.000000
feeder_2_triplex_load_R3-12-47-1_tm_314,-98.622172,-57.549607,-98.622172,-57.549607,0.000000,0.000000
feeder_2_triplex_load_R3-12-47-1_tm_315,-0.457539,114.051954,-0.457539,114.051954,0.000000,0.000000
feeder_2_triplex_load_R3-12-47-1_tm_316,99.029195,-56.669928,99.029195,-56.669928,0.000000,0.000000
feeder_2_triplex_load_R3-12-47-1_tm_317,-98.550629,-57.464309,-98.550629,-57.464309,0.000000,0.000000
feeder_2_triplex_load_R3-12-47-1_tm_319,98.973221,-56.668777,98.973221,-56.668777,0.000000,0.000000
feeder_2_triplex_load_R3-12-47-1_tm_320,-98.534459,-57.415011,-98.534459,-57.415011,0.000000,0.000000
feeder_2_triplex_load_R3-12-47-1_tm_322,-0.485615,114.181221,-0.485615,114.181221,0.000000,0.000000
feeder_2_triplex_load_R3-12-47-1_tm_323,99.065878,-56.668469,99.065878,-56.668469,0.000000,0.000000
feeder_2_triplex_load_R3-12-47-1_tm_324,-98.551637,-57.441412,-98.551637,-57.441412,0.000000,0.000000
feeder_2_triplex_load_R3-12-47-1_tm_325,0.701661,110.959813,0.701661,110.959813,0.000000,0.000000
feeder_2_triplex_load_R3-12-47-1_tm_326,99.111161,-56.669426,99.111161,-56.669426,0.000000,0.000000
feeder_2_triplex_load_R3-12-47-1_tm_330,99.052409,-56.669730,99.052409,-56.669730,0.000000,0.000000
feeder_2_triplex_load_R3-12-47-1_tm_331,-98.609237,-57.541399,-98.609237,-57.541399,0.000000,0.000000
feeder_2_triplex_load_R3-12-47-1_tm_333,-98.271393,-57.098899,-98.271393,-57.098899,0.000000,0.000000
feeder_2_triplex_load_R3-12-47-1_tm_335,98.531780,-56.599364,98.531780,-56.599364,0.000000,0.000000
feeder_2_triplex_load_R3-12-47-1_tm_338,-98.385457,-57.307325,-98.385457,-57.307325,0.000000,0.000000
feeder_2_triplex_load_R3-12-47-1_tm_339,-0.251643,113.563572,-0.251643,113.563572,0.000000,0.000000
feeder_2_triplex_load_R3-12-47-1_tm_341,-98.673170,-57.602005,-98.673170,-57.602005,0.000000,0.000000
feeder_2_triplex_load_R3-12-47-1_tm_342,-0.468127,114.135104,-0.468127,114.135104,0.000000,0.000000
feeder_2_triplex_load_R3-12-47-1_tm_343,98.591824,-56.601655,98.591824,-56.601655,0.000000,0.000000
feeder_2_triplex_load_R3-12-47-1_tm_346,-0.515003,114.212458,-0.515003,114.212458,0.000000,0.000000
feeder_2_triplex_load_R3-12-47-1_tm_348,-0.333435,113.620458,-0.333435,113.620458,0.000000,0.000000
feeder_2_triplex_load_R3-12-47-1_tm_352,-98.704720,-57.666702,-98.704720,-57.666702,0.000000,0.000000
feeder_2_triplex_load_R3-12-47-1_tm_360,98.946899,-56.665700,98.946899,-56.665700,0.000000,0.000000
feeder_2_triplex_load_R3-12-47-1_tm_361,97.665904,-56.416789,97.665904,-56.416789,0.000000,0.000000
feeder_2_triplex_load_R3-12-47-1_tm_362,99.095444,-56.659004,99.095444,-56.659004,0.000000,0.000000
feeder_2_triplex_load_R3-12-47-1_tm_364,99.037097,-56.649334,99.037097,-56.649334,0.000000,0.000000
feeder_2_triplex_load_R3-12-47-1_tm_365,98.721053,-56.549556,98.721053,-56.549556,0.000000,0.000000
feeder_2_triplex_load_R3-12-47-1_tm_370,-98.656079,-57.575871,-98.656079,-57.575871,0.000000,0.000000
feeder_2_triplex_load_R3-12-47-1_tm_375,-98.517096,-57.516576,-98.517096,-57.516576,0.000000,0.000000
feeder_2_triplex_load_R3-12-47-1_tm_376,-0.512745,113.999854,-0.512745,113.999854,0.000000,0.000000
feeder_2_triplex_load_R3-12-47-1_tm_378,-98.567531,-57.597432,-98.567531,-57.597432,0.000000,0.000000
feeder_2_triplex_load_R3-12-47-1_tm_379,-0.517939,114.038251,-0.517939,114.038251,0.000000,0.000000
feeder_2_triplex_load_R3-12-47-1_tm_381,-98.105127,-57.022530,-98.105127,-57.022530,0.000000,0.000000
feeder_2_triplex_load_R3-12-47-1_tm_382,99.114613,-56.626567,99.114613,-56.626567,0.000000,0.000000
feeder_2_triplex_load_R3-12-47-1_tm_383,-98.535263,-57.554308,-98.535263,-57.554308,0.000000,0.000000
feeder_2_triplex_load_R3-12-47-1_tm_385,99.077031,-56.624253,99.077031,-56.624253,0.000000,0.000000
feeder_2_triplex_load_R3-12-47-1_tm_386,-98.536899,-57.566511,-98.536899,-57.566511,0.000000,0.000000
feeder_2_triplex_load_R3-12-47-1_tm_389,-98.578729,-57.610188,-98.578729,-57.610188,0.000000,0.000000
feeder_2_triplex_load_R3-12-47-1_tm_392,-98.572398,-57.588906,-98.572398,-57.588906,0.000000,0.000000
feeder_2_triplex_load_R3-12-47-1_tm_393,-0.548801,114.097037,-0.548801,114.097037,0.000000,0.000000
...
feeder_3_R3-12-47-1_cap_1,5946.931593,-3417.910998,-5935.219818,-3448.596963,-18.810019,6854.504263
feeder_3_R3-12-47-1_load_1,230.942011,-133.634410,-231.255926,-133.415195,0.102378,266.669927
feeder_3_R3-12-47-1_load_2,230.844155,-133.669950,-231.237854,-133.312730,0.182169,266.602961
feeder_3_R3-12-47-1_load_3,230.301691,-133.843415,-231.117282,-132.756470,0.604088,266.219938
feeder_3_R3-12-47-1_load_4,230.293784,-133.837719,-231.108405,-132.752468,0.603113,266.210237
feeder_3_R3-12-47-1_load_5,230.296048,-133.839047,-231.110684,-132.753765,0.603129,266.212862
feeder_3_R3-12-47-1_load_6,230.135610,-132.821796,-230.160795,-133.167364,-0.230747,265.537284
feeder_3_R3-12-47-1_load_7,227.104701,-130.805823,-226.918506,-131.647407,-0.506544,261.790218
feeder_3_R3-12-47-1_load_8,227.007312,-130.837333,-226.897228,-131.547387,-0.430415,261.721623
feeder_3_R3-12-47-1_load_9,226.807990,-130.909582,-226.860393,-131.338812,-0.267879,261.585121
feeder_3_R3-12-47-1_load_10,224.580116,-128.314024,-223.390307,-130.546174,-1.347630,258.415643
feeder_3_R3-12-47-1_load_11,0.000000,0.000000,-222.931216,-128.472299,0.221075,256.979175
feeder_3_R3-12-47-1_load_12,226.016108,-131.932564,0.000000,0.000000,0.997616,261.504742
feeder_3_R3-12-47-1_load_13,227.999381,-131.274383,-227.805838,-132.182360,-0.565574,262.888704
feeder_3_R3-12-47-1_load_14,227.448116,-131.450479,-227.683397,-131.617401,-0.136735,262.499454
feeder_3_R3-12-47-1_load_15,227.896608,-131.236498,-227.712977,-132.107814,-0.545956,262.775537
feeder_3_R3-12-47-1_load_16,227.710826,-131.284847,-227.662194,-131.922893,-0.410958,262.638841
feeder_3_R3-12-47-1_load_17,227.881248,-131.225444,-227.695752,-132.100032,-0.547836,262.756692
feeder_3_R3-12-47-1_load_18,227.724216,-131.297274,-227.704170,-131.937602,-0.410166,262.680844
feeder_3_R3-12-47-1_load_19,227.922206,-131.223697,-227.739207,-132.145652,-0.573128,262.815456
feeder_3_R3-12-47-1_load_20,227.199793,-131.345226,-227.469772,-131.456414,-0.104699,262.228013
feeder_3_R3-12-47-1_load_21,225.645570,-131.763996,-227.055623,-129.901284,0.000000,0.000000
feeder_3_R3-12-47-1_load_22,219.915351,-133.379184,-227.556575,-132.114085,5.307896,256.935265
feeder_3_R3-12-47-1_load_23,227.117710,-131.306474,-227.394532,-131.404556,-0.097603,262.135616
feeder_3_R3-12-47-1_load_24,224.365966,-132.144055,-226.735209,-128.599879,2.009622,260.159516
feeder_3_R3-12-47-1_load_25,227.821448,-131.096021,-227.369758,-131.315889,-0.027071,262.071857
feeder_3_R3-12-47-1_load_26,236.781207,-139.219176,-238.965101,-135.466565,2.177805,274.672107
feeder_3_R3-12-47-1_load_27,225.348460,-131.625076,0.000000,0.000000,1.065747,260.765655
feeder_3_R3-12-47-1_load_28,226.829693,-131.170679,-227.134807,-131.222979,-0.070231,261.820935
feeder_3_R3-12-47-1_load_29,227.339263,-130.996065,-227.237740,-131.751107,-0.476901,262.174813
feeder_3_R3-12-47-1_load_30,227.144077,-131.039083,-227.177406,-131.559958,-0.340791,262.030317
feeder_3_R3-12-47-1_load_31,226.805395,-131.153371,-227.107423,-131.209710,-0.071883,261.794688
feeder_3_R3-12-47-1_load_32,227.145672,-131.040179,-227.179150,-131.560792,-0.340640,262.032248
feeder_3_R3-12-47-1_load_33,225.321650,-131.606053,-226.759585,-129.699534,0.000000,0.000000
feeder_3_R3-12-47-1_load_34,226.702294,-131.087863,-226.997456,-131.153493,-0.078236,261.666638
feeder_3_R3-12-47-1_load_35,226.704850,-131.089619,-227.000250,-131.154829,-0.077995,261.669733
feeder_3_R3-12-47-1_load_36,226.802705,-130.999083,-226.970051,-131.284562,-0.205365,261.708554
feeder_3_R3-12-47-1_load_37,226.909628,-130.823035,-226.869630,-131.464654,-0.411234,261.711711
feeder_3_R3-12-47-1_load_38,225.048063,-131.358041,-226.403741,-129.585329,-0.687658,261.917717
feeder_3_R3-12-47-1_load_39,226.807086,-130.818352,-226.812250,-131.375668,-0.361147,261.618071
feeder_3_R3-12-47-1_load_40,227.215652,-130.688572,-226.904166,-131.794528,-0.679091,261.907679
feeder_3_R3-12-47-1_load_41,227.224447,-130.687301,-226.637621,-130.605263,0.220330,261.080571
feeder_3_R3-12-47-1_load_42,224.251742,-131.595217,-226.906540,-131.802260,1.592750,259.792583
feeder_3_R3-12-47-1_load_43,227.070361,-130.710660,-226.852252,-131.659939,-0.589229,261.794212
feeder_3_R3-12-47-1_load_44,227.053399,-130.698220,-226.833173,-131.651652,-0.591652,261.773241
feeder_3_R3-12-47-1_load_45,227.153420,-130.658241,-226.848440,-131.758161,-0.676419,261.839844
feeder_3_R3-12-47-1_load_46,219.228201,-132.920892,-226.820179,-131.773918,5.255495,256.108309
feeder_3_R3-12-47-1_load_47,226.905125,-130.621993,-226.693783,-131.562020,-0.583910,261.606433
feeder_3_R3-12-47-1_load_48,226.735753,-130.683182,-226.662296,-131.384906,-0.446007,261.490387
feeder_3_R3-12-47-1_load_49,226.923601,-130.601807,-226.685526,-131.588080,-0.610660,261.612322
feeder_3_R3-12-47-1_load_50,226.669757,-130.637469,-226.589838,-131.350582,-0.452538,261.410315
feeder_3_R3-12-47-1_load_51,226.666849,-130.635470,-226.586658,-131.349062,-0.452813,261.406794
feeder_3_R3-12-47-1_load_52,226.316952,-130.743084,-226.505350,-130.992549,-0.184212,261.157640
feeder_3_R3-12-47-1_load_53,227.173675,-130.686595,-226.882778,-131.761183,-0.661718,261.871673
feeder_3_R3-12-47-1_load_54,226.611042,-130.878640,-226.768477,-131.178422,-0.213342,261.480562
feeder_3_R3-12-47-1_load_55,231.458754,-134.904761,-232.601331,-133.184862,0.975345,267.777704
feeder_3_R3-12-47-1_load_56,231.932208,-134.719903,-232.675254,-133.685388,0.578519,268.093328
feeder_3_R3-12-47-1_load_57,231.454656,-134.901923,-232.596829,-133.182730,0.974939,267.772733
feeder_3_R3-12-47-1_load_58,232.031409,-134.641005,-232.652857,-133.807947,0.461494,268.137227
feeder_3_R3-12-47-1_load_59,227.738745,-131.032079,-227.396890,-132.072596,-0.634911,262.426657
feeder_3_R3-12-47-1_load_60,227.615831,-131.214422,-227.491700,-131.871681,-0.408789,262.407417
feeder_3_R3-12-47-1_load_61,227.405329,-130.981670,-227.221449,-131.817011,-0.502638,262.145557
feeder_3_R3-12-47-1_load_62,222.947569,-127.016460,-221.445899,-129.773106,-1.653405,256.358771
feeder_3_R3-12-47-1_load_63,228.137565,-131.085156,-227.645005,-132.297479,-0.743924,262.935697
feeder_3_R3-12-47-1_load_64,226.792043,-130.440114,-226.480017,-131.554848,-0.684820,261.417340
feeder_3_R3-12-47-1_meter_1,230.942011,-133.634410,-231.255926,-133.415195,0.102378,266.669927
feeder_3_R3-12-47-1_meter_2,230.844155,-133.669950,-231.237854,-133.312730,0.182169,266.602961
feeder_3_R3-12-47-1_meter_3,230.301691,-133.843415,-231.117282,-132.756470,0.604088,266.219938
feeder_3_R3-12-47-1_meter_4,230.293784,-133.837719,-231.108405,-132.752468,0.603113,266.210237
feeder_3_R3-12-47-1_meter_5,230.296048,-133.839047,-231.110684,-132.753765,0.603129,266.212862
feeder_3_R3-12-47-1_meter_6,230.135610,-132.821796,-230.160795,-133.167364,-0.230747,265.537284
feeder_3_R3-12-47-1_meter_7,227.104701,-130.805823,-226.918506,-131.647407,-0.506544,261.790218
feeder_3_R3-12-47-1_meter_8,227.007312,-130.837333,-226.897228,-131.547387,-0.430415,261.721623
feeder_3_R3-12-47-1_meter_9,226.807990,-130.909582,-226.860393,-131.338812,-0.267879,261.585121
feeder_3_R3-12-47-1_meter_10,224.580116,-128.314024,-223.390307,-130.546174,-1.347630,258.415643
feeder_3_R3-12-47-1_meter_11,0.000000,0.000000,-222.931216,-128.472299,0.221075,256.979175
feeder_3_R3-12-47-1_meter_12,226.016108,-131.932564,0.000000,0.000000,0.997616,261.504742
feeder_3_R3-12-47-1_meter_13,227.999381,-131.274383,-227.805838,-132.182360,-0.565574,262.888704
feeder_3_R3-12-47-1_meter_14,227.448116,-131.450479,-227.683397,-131.617401,-0.136735,262.499454
feeder_3_R3-12-47-1_meter_15,227.896608,-131.236498,-227.712977,-132.107814,-0.545956,262.775537
feeder_3_R3-12-47-1_meter_16,227.710826,-131.284847,-227.662194,-131.922893,-0.410958,262.638841
feeder_3_R3-12-47-1_meter_17,227.881248,-131.225444,-227.695752,-132.100032,-0.547836,262.756692
feeder_3_R3-12-47-1_meter_18,227.724216,-131.297274,-227.704170,-131.937602,-0.410166,262.680844
feeder_3_R3-12-47-1_meter_19,227.922206,-131.223697,-227.739207,-132.145652,-0.573128,262.815456
feeder_3_R3-12-47-1_meter_20,227.199793,-131.345226,-227.469772,-131.456414,-0.104699,262.228013
feeder_3_R3-12-47-1_meter_21,225.645570,-131.763996,-227.055623,-129.901284,0.000000,0.000000
feeder_3_R3-12-47-1_meter_22,219.915351,-133.379184,-227.556575,-132.114085,5.307896,256.935265
feeder_3_R3-12-47-1_meter_23,227.117710,-131.306474,-227.394532,-131.404556,-0.097603,262.135616
feeder_3_R3-12-47-1_meter_24,224.365966,-132.144055,-226.735209,-128.599879,2.009622,260.159516
feeder_3_R3-12-47-1_meter_25,227.821448,-131.096021,-227.369758,-131.315889,-0.027071,262.071857
feeder_3_R3-12-47-1_meter_26,236.781207,-139.219176,-238.965101,-135.466565,2.177805,274.672107
feeder_3_R3-12-47-1_meter_27,225.348460,-131.625076,0.000000,0.000000,1.065747,260.765655
feeder_3_R3-12-47-1_meter_28,226.829693,-131.170679,-227.134807,-131.222979,-0.070231,261.820935
feeder_3_R3-12-47-1_meter_29,227.339263,-130.996065,-227.237740,-131.751107,-0.476901,262.174813
feeder_3_R3-12-47-1_meter_30,227.144077,-131.039083,-227.177406,-131.559958,-0.340791,262.030317
feeder_3_R3-12-47-1_meter_31,226.805395,-131.153371,-227.107423,-131.209710,-0.071883,261.794688
feeder_3_R3-12-47-1_meter_32,227.145672,-131.040179,-227.179150,-131.560792,-0.340640,262.032248
feeder_3_R3-12-47-1_meter_33,225.321650,-131.606053,-226.759585,-129.699534,0.000000,0.000000
feeder_3_R3-12-47-1_meter_34,226.702294,-131.087863,-226.997456,-131.153493,-0.078236,261.666638
feeder_3_R3-12-47-1_meter_35,226.704850,-131.089619,-227.000250,-131.154829,-0.077995,261.669733
feeder_3_R3-12-47-1_meter_36,226.802705,-130.999083,-226.970051,-131.284562,-0.205365,261.708554
feeder_3_R3-12-47-1_meter_37,226.909628,-130.823035,-226.869630,-131.464654,-0.411234,261.711711
feeder_3_R3-12-47-1_meter_38,225.048063,-131.358041,-226.403741,-129.585329,-0.687658,261.917717
feeder_3_R3-12-47-1_meter_39,226.807086,-130.818352,-226.812250,-131.375668,-0.361147,261.618071
feeder_3_R3-12-47-1_meter_40,227.215652,-130.688572,-226.904166,-131.794528,-0.679091,261.907679
feeder_3_R3-12-47-1_meter_41,227.224447,-130.687301,-226.637621,-130.605263,0.220330,261.080571
feeder_3_R3-12-47-1_meter_42,224.251742,-131.595217,-226.906540,-131.802260,1.592750,259.792583
feeder_3_R3-12-47-1_meter_43,227.070361,-130.710660,-226.852252,-131.659939,-0.589229,261.794212
feeder_3_R3-12-47-1_meter_44,227.053399,-130.698220,-226.833173,-131.651652,-0.591652,261.773241
feeder_3_R3-12-47-1_meter_45,227.153420,-130.658241,-226.848440,-131.758161,-0.676419,261.839844
feeder_3_R3-12-47-1_meter_46,219.228201,-132.920892,-226.820179,-131.773918,5.255495,256.108309
feeder_3_R3-12-47-1_meter_47,226.905125,-130.621993,-226.693783,-131.562020,-0.583910,261.606433
feeder_3_R3-12-47-1_meter_48,226.735753,-130.683182,-226.662296,-131.384906,-0.446007,261.490387
feeder_3_R3-12-47-1_meter_49,226.923601,-130.601807,-226.685526,-131.588080,-0.610660,261.612322
feeder_3_R3-12-47-1_meter_50,226.669757,-130.637469,-226.589838,-131.350582,-0.452538,261.410315
feeder_3_R3-12-47-1_meter_51,226.666849,-130.635470,-226.586658,-131.349062,-0.452813,261.406794
feeder_3_R3-12-47-1_meter_52,226.316952,-130.743084,-226.505350,-130.992549,-0.184212,261.157640
feeder_3_R3-12-47-1_meter_53,227.173675,-130.686595,-226.882778,-131.761183,-0.661718,261.871673
feeder_3_R3-12-47-1_meter_54,226.611042,-130.878640,-226.768477,-131.178422,-0.213342,261.480562
feeder_3_R3-12-47-1_meter_55,231.458754,-134.904761,-232.601331,-133.184862,0.975345,267.777704
feeder_3_R3-12-47-1_meter_56,231.932208,-134.719903,-232.675254,-133.685388,0.578519,268.093328
feeder_3_R3-12-47-1_meter_57,231.454656,-134.901923,-232.596829,-133.182730,0.974939,267.772733
feeder_3_R3-12-47-1_meter_58,232.031409,-134.641005,-232.652857,-133.807947,0.461494,268.137227
feeder_3_R3-12-47-1_meter_59,227.738745,-131.032079,-227.396890,-132.072596,-0.634911,262.426657
feeder_3_R3-12-47-1_meter_60,227.615831,-131.214422,-227.491700,-131.871681,-0.408789,262.407417
feeder_3_R3-12-47-1_meter_61,227.405329,-130.981670,-227.221449,-131.817011,-0.502638,262.145557
feeder_3_R3-12-47-1_meter_62,222.947569,-127.016460,-221.445899,-129.773106,-1.653405,256.358771
feeder_3_R3-12-47-1_meter_63,228.137565,-131.085156,-227.645005,-132.297479,-0.743924,262.935697
feeder_3_R3-12-47-1_meter_64,226.792043,-130.440114,-226.480017,-131.554848,-0.684820,261.417340
feeder_3_R3-12-47-1_meter_65,6157.717338,-3621.230953,-6215.089928,-3522.400388,57.382865,7143.594706
feeder_3_R3-12-47-1_node_1,5943.301728,-3417.582830,-5932.797402,-3447.188928,-17.964073,6848.835519
feeder_3_R3-12-47-1_node_2,5911.367527,-3402.442900,-5905.421782,-3427.712178,-15.670822,6815.259529
feeder_3_R3-12-47-1_node_4,6157.727224,-3621.188978,-6215.058947,-3522.429737,57.341239,7143.582308
feeder_3_R3-12-47-1_node_5,6019.971150,-3488.693643,-6032.521618,-3474.510018,7.650738,6954.304299
feeder_3_R3-12-47-1_node_6,6005.852980,-3475.198911,-6013.936537,-3469.617941,2.591058,6934.955308
feeder_3_R3-12-47-1_node_7,6002.124035,-3472.584634,-6009.812223,-3467.694470,2.193513,6930.416286
feeder_3_R3-12-47-1_node_8,6000.530336,-3471.463959,-6008.046631,-3466.874086,2.020690,6928.474684
feeder_3_R3-12-47-1_node_9,6000.993519,-3471.801786,-6008.570268,-3467.106467,2.081416,6929.045047
feeder_3_R3-12-47-1_node_10,6000.635403,-3471.553994,-6008.177018,-3466.920108,2.046074,6928.610775
feeder_3_R3-12-47-1_node_11,6000.554203,-3471.490834,-6008.081811,-3466.881345,2.032009,6928.508807
feeder_3_R3-12-47-1_node_12,6000.758994,-3471.639070,-6008.312353,-3466.984643,2.057888,6928.760427
feeder_3_R3-12-47-1_node_13,6000.612835,-3471.525382,-6008.140982,-3466.914869,2.032572,6928.576887
feeder_3_R3-12-47-1_node_14,6005.853681,-3475.196575,-6013.934865,-3469.619714,2.588683,6934.954746
feeder_3_R3-12-47-1_node_15,5991.589858,-3461.694162,-5995.280624,-3464.646306,-2.434921,6915.450877
feeder_3_R3-12-47-1_node_16,5979.808000,-3450.538748,-5979.870161,-3460.539555,-6.586563,6899.339506
feeder_3_R3-12-47-1_node_17,5979.559122,-3450.342550,-5979.576145,-3460.422038,-6.631908,6899.025627
feeder_3_R3-12-47-1_node_18,5979.816477,-3450.501645,-5979.842782,-3460.565194,-6.623191,6899.328354
feeder_3_R3-12-47-1_node_19,5979.808125,-3450.538333,-5979.869864,-3460.539871,-6.586985,6899.339407
feeder_3_R3-12-47-1_node_20,5962.913021,-3434.526189,-5957.760595,-3454.666472,-12.560016,6876.223274
feeder_3_R3-12-47-1_node_21,5960.420880,-3432.268665,-5954.494478,-3453.795050,-13.357775,6872.669550
feeder_3_R3-12-47-1_node_22,5958.441948,-3430.465047,-5951.902050,-3453.120427,-14.010434,6869.838132
feeder_3_R3-12-47-1_node_23,5958.439730,-3430.475432,-5951.909783,-3453.113398,-13.999996,6869.841517
feeder_3_R3-12-47-1_node_24,5958.444165,-3430.454662,-5951.894317,-3453.127456,-14.020872,6869.834746
feeder_3_R3-12-47-1_node_25,5956.167527,-3428.393968,-5948.924114,-3452.344135,-14.758880,6866.584912
feeder_3_R3-12-47-1_node_26,5956.167527,-3428.393900,-5948.924114,-3452.344135,-14.758932,6866.584886
feeder_3_R3-12-47-1_node_27,5956.039218,-3428.371878,0.000000,0.000000,-14.778217,6866.476417
feeder_3_R3-12-47-1_node_28,5954.001910,-3426.412335,-5946.060499,-3451.581065,-15.460116,6863.485993
feeder_3_R3-12-47-1_node_29,5949.274871,-3422.052500,-5939.771953,-3449.921267,-17.001112,6856.728031
feeder_3_R3-12-47-1_node_30,5946.850017,-3419.798280,-5936.511114,-3449.060747,-17.790469,6853.234889
feeder_3_R3-12-47-1_node_31,5946.846703,-3419.801508,-5936.508740,-3449.050273,-17.781415,6853.230584
feeder_3_R3-12-47-1_node_32,5945.373674,-3418.423321,-5934.534250,-3448.541129,-18.275775,6851.113801
feeder_3_R3-12-47-1_node_33,5945.375916,-3418.413187,-5934.526668,-3448.548093,-18.285992,6851.110536
feeder_3_R3-12-47-1_node_34,5943.301728,-3417.582830,-5932.797402,-3447.188928,-17.964073,6848.835519
feeder_3_R3-12-47-1_node_35,5943.303970,-3417.572696,-5932.789820,-3447.195891,-17.974290,6848.832254
feeder_3_R3-12-47-1_node_36,5943.299487,-3417.592965,-5932.804984,-3447.181964,-17.953856,6848.838784
feeder_3_R3-12-47-1_node_37,5943.301728,-3417.582830,-5932.797402,-3447.188928,-17.964073,6848.835519
feeder_3_R3-12-47-1_node_38,5943.249879,-3417.556447,-5932.744096,-3447.154021,-17.957978,6848.775144
feeder_3_R3-12-47-1_node_39,5943.249872,-3417.556159,-5932.743824,-3447.154168,-17.958225,6848.774981
feeder_3_R3-12-47-1_node_40,5943.155214,-3417.527722,-5932.663806,-3447.080895,-17.929679,6848.675039
feeder_3_R3-12-47-1_node_41,5943.077137,-3417.494004,-5932.579590,-3447.020203,-17.903057,6848.582206
feeder_3_R3-12-47-1_node_42,5942.966936,-3417.446412,-5932.460726,-3446.934540,-17.865483,6848.451179
feeder_3_R3-12-47-1_node_43,5942.948467,-3417.437241,-5932.441730,-3446.920284,-17.858552,6848.436893
feeder_3_R3-12-47-1_node_44,0.000000,0.000000,-5932.654572,-3447.067924,0.000000,0.000000
feeder_3_R3-12-47-1_node_45,5942.865995,-3417.452803,-5932.502195,-3446.927443,-17.867191,6848.392967
feeder_3_R3-12-47-1_node_46,5942.769890,-3417.422798,0.000000,0.000000,0.000000,0.000000
feeder_3_R3-12-47-1_node_47,5942.831608,-3417.426763,-5932.473177,-3446.892359,0.000000,0.000000
feeder_3_R3-12-47-1_node_48,0.000000,0.000000,0.000000,0.000000,-17.858203,6848.360821
feeder_3_R3-12-47-1_node_49,0.000000,0.000000,0.000000,0.000000,-17.832435,6848.222172
feeder_3_R3-12-47-1_node_50,5942.816891,-3417.446801,-5932.416337,-3446.865451,-17.845923,6848.309598
feeder_3_R3-12-47-1_node_51,5938.455467,-3415.617970,-5928.746188,-3444.034294,-17.238729,6843.507586
feeder_3_R3-12-47-1_node_52,5929.585123,-3412.041796,-5921.348354,-3438.250145,-15.893018,6833.766096
feeder_3_R3-12-47-1_node_53,5929.535226,-3412.037053,-5921.278417,-3438.188895,-15.852642,6833.646630
feeder_3_R3-12-47-1_node_54,5929.535217,-3412.036923,-5921.278208,-3438.188994,-15.852864,6833.646463
feeder_3_R3-12-47-1_node_55,5929.515416,-3412.035040,-5921.250455,-3438.164688,-15.836842,6833.599056
feeder_3_R3-12-47-1_node_56,0.000000,0.000000,-5921.244773,-3438.159835,0.000000,0.000000
feeder_3_R3-12-47-1_node_57,5929.518746,-3412.034643,-5921.198293,-3438.118882,-15.802112,6833.536285
feeder_3_R3-12-47-1_node_58,5929.501061,-3412.030013,0.000000,0.000000,0.000000,0.000000
feeder_3_R3-12-47-1_node_59,5929.487961,-3412.025426,0.000000,0.000000,0.000000,0.000000
feeder_3_R3-12-47-1_node_60,5929.450600,-3412.029199,-5921.172644,-3438.100135,-15.793045,6833.456928
feeder_3_R3-12-47-1_node_61,5929.242970,-3412.010487,-5920.923384,-3437.893345,-15.652744,6833.001637
feeder_3_R3-12-47-1_node_62,0.000000,0.000000,-5920.884327,-3437.856825,0.000000,0.000000
feeder_3_R3-12-47-1_node_63,5929.224467,-3412.008618,0.000000,0.000000,0.000000,0.000000
feeder_3_R3-12-47-1_node_64,0.000000,0.000000,0.000000,0.000000,-15.607237,6832.825711
feeder_3_R3-12-47-1_node_65,0.000000,0.000000,0.000000,0.000000,-15.572023,6832.690956
feeder_3_R3-12-47-1_node_66,5929.105849,-3411.963894,-5920.736199,-3437.724373,-15.558604,6832.816287
feeder_3_R3-12-47-1_node_67,5929.115481,-3411.963267,-5920.662285,-3437.684317,-15.525556,6832.769748
feeder_3_R3-12-47-1_node_68,5929.075860,-3411.950319,-5920.725257,-3437.706124,-15.553323,6832.799472
feeder_3_R3-12-47-1_node_69,5928.534705,-3411.547999,-5920.370075,-3437.592578,-15.832923,6832.501739
feeder_3_R3-12-47-1_node_70,5928.534967,-3411.546012,-5920.368442,-3437.593835,-15.834946,6832.500947
feeder_3_R3-12-47-1_node_71,5928.019164,-3411.733080,-5920.235122,-3437.039147,-15.371597,6832.078317
...
feeder_3_triplex_load_R3-12-47-1_tm_1,98.457996,-56.961660,98.457996,-56.961660,0.000000,0.000000
feeder_3_triplex_load_R3-12-47-1_tm_2,-0.070161,113.747394,-0.070161,113.747394,0.000000,0.000000
feeder_3_triplex_load_R3-12-47-1_tm_6,98.988672,-57.016750,98.988672,-57.016750,0.000000,0.000000
feeder_3_triplex_load_R3-12-47-1_tm_8,-0.185488,114.093176,-0.185488,114.093176,0.000000,0.000000
feeder_3_triplex_load_R3-12-47-1_tm_11,-0.228512,114.227554,-0.228512,114.227554,0.000000,0.000000
feeder_3_triplex_load_R3-12-47-1_tm_13,-98.641795,-57.183420,-98.641795,-57.183420,0.000000,0.000000
feeder_3_triplex_load_R3-12-47-1_tm_14,-0.189161,113.849442,-0.189161,113.849442,0.000000,0.000000
feeder_3_triplex_load_R3-12-47-1_tm_16,98.868725,-56.899134,98.868725,-56.899134,0.000000,0.000000
feeder_3_triplex_load_R3-12-47-1_tm_17,-98.707383,-57.292589,-98.707383,-57.292589,0.000000,0.000000
...